test Quench
  MatStudio         3D                             0

 93 92  0  0  0  0  0  0  0  0999 V2000
   22.6122   25.7008   21.5791 C   0  0  0  0  0  0  0  0  0  1
   22.2063   24.3779   22.0535 C   0  0  0  0  0  0  0  0  0  2
   23.3413   23.4621   22.1775 C   0  0  0  0  0  0  0  0  0  3
   21.2859   23.8135   21.0671 C   0  0  0  0  0  0  0  0  0  4
   22.0331   24.9444   24.4002 C   0  0  0  0  0  0  0  0  0  5
   21.2421   25.5355   26.7537 C   0  0  0  0  0  0  0  0  0  6
   20.4620   26.8792   26.9373 C   0  0  0  0  0  0  0  0  0  7
   18.9905   26.8806   27.0579 C   0  0  0  0  0  0  0  0  0  8
   17.0819   25.5337   27.5499 C   0  0  0  0  0  0  0  0  0  9
   16.6190   24.1790   27.2424 C   0  0  0  0  0  0  0  0  0 10
   17.0753   23.0796   28.2387 C   0  0  0  0  0  0  0  0  0 11
   17.3623   23.6427   29.6469 C   0  0  0  0  0  0  0  0  0 12
   16.4480   24.8404   29.9223 C   0  0  0  0  0  0  0  0  0 13
   16.7319   25.9786   28.9097 C   0  0  0  0  0  0  0  0  0 14
   22.7339   25.8790   26.9686 C   0  0  0  0  0  0  0  0  0 15
   31.3317   24.9934   21.5866 C   0  0  0  0  0  0  0  0  0 16
   30.1514   25.3040   20.7837 C   0  0  0  0  0  0  0  0  0 17
   29.8803   24.1524   19.9240 C   0  0  0  0  0  0  0  0  0 18
   30.3360   26.4715   19.9230 C   0  0  0  0  0  0  0  0  0 19
   28.9353   26.4367   22.5472 C   0  0  0  0  0  0  0  0  0 20
   27.6186   26.9081   24.5908 C   0  0  0  0  0  0  0  0  0 21
   28.7522   26.6246   25.5993 C   0  0  0  0  0  0  0  0  0 22
   29.2969   25.1798   25.5891 C   0  0  0  0  0  0  0  0  0 23
   31.1905   23.9441   26.4579 C   0  0  0  0  0  0  0  0  0 24
   32.2514   23.8993   25.4537 C   0  0  0  0  0  0  0  0  0 25
   33.0614   22.5758   25.4790 C   0  0  0  0  0  0  0  0  0 26
   32.9844   21.8871   26.8601 C   0  0  0  0  0  0  0  0  0 27
   32.9702   22.9490   27.9676 C   0  0  0  0  0  0  0  0  0 28
   31.7275   23.8666   27.8222 C   0  0  0  0  0  0  0  0  0 29
   26.2356   26.5556   25.1883 C   0  0  0  0  0  0  0  0  0 30
   23.0300   25.6411   20.5594 H   0  0  0  0  0  0  0  0  0 31
   21.7412   26.3758   21.5488 H   0  0  0  0  0  0  0  0  0 32
   23.3793   26.1782   22.2093 H   0  0  0  0  0  0  0  0  0 33
   24.1589   23.8460   22.8067 H   0  0  0  0  0  0  0  0  0 34
   23.7781   23.2523   21.1859 H   0  0  0  0  0  0  0  0  0 35
   23.0075   22.5044   22.6084 H   0  0  0  0  0  0  0  0  0 36
   21.7474   23.7060   20.0717 H   0  0  0  0  0  0  0  0  0 37
   20.9361   22.8175   21.3870 H   0  0  0  0  0  0  0  0  0 38
   20.3920   24.4512   20.9588 H   0  0  0  0  0  0  0  0  0 39
   20.1517   24.6778   25.1613 H   0  0  0  0  0  0  0  0  0 40
   20.9280   24.7790   27.4917 H   0  0  0  0  0  0  0  0  0 41
   20.8307   27.3639   27.8600 H   0  0  0  0  0  0  0  0  0 42
   20.7033   27.5619   26.1090 H   0  0  0  0  0  0  0  0  0 43
   16.5907   26.1990   26.8197 H   0  0  0  0  0  0  0  0  0 44
   16.9439   23.9207   26.2199 H   0  0  0  0  0  0  0  0  0 45
   15.5148   24.1925   27.2214 H   0  0  0  0  0  0  0  0  0 46
   17.9693   22.5634   27.8536 H   0  0  0  0  0  0  0  0  0 47
   16.2861   22.3108   28.2984 H   0  0  0  0  0  0  0  0  0 48
   18.4108   23.9831   29.7042 H   0  0  0  0  0  0  0  0  0 49
   17.2454   22.8572   30.4126 H   0  0  0  0  0  0  0  0  0 50
   15.3950   24.5146   29.8400 H   0  0  0  0  0  0  0  0  0 51
   16.5741   25.2186   30.9516 H   0  0  0  0  0  0  0  0  0 52
   17.5846   26.5674   29.2871 H   0  0  0  0  0  0  0  0  0 53
   15.8749   26.6735   28.9010 H   0  0  0  0  0  0  0  0  0 54
   32.1672   24.6629   20.9503 H   0  0  0  0  0  0  0  0  0 55
   31.7009   25.8467   22.1787 H   0  0  0  0  0  0  0  0  0 56
   31.0941   24.1772   22.2872 H   0  0  0  0  0  0  0  0  0 57
   30.7159   23.9307   19.2396 H   0  0  0  0  0  0  0  0  0 58
   28.9775   24.3270   19.3152 H   0  0  0  0  0  0  0  0  0 59
   29.6911   23.2534   20.5342 H   0  0  0  0  0  0  0  0  0 60
   30.7085   27.3623   20.4542 H   0  0  0  0  0  0  0  0  0 61
   31.0623   26.2553   19.1242 H   0  0  0  0  0  0  0  0  0 62
   29.3798   26.7421   19.4482 H   0  0  0  0  0  0  0  0  0 63
   27.4476   25.3063   23.2959 H   0  0  0  0  0  0  0  0  0 64
   27.5919   27.9906   24.3742 H   0  0  0  0  0  0  0  0  0 65
   29.6273   27.2688   25.4090 H   0  0  0  0  0  0  0  0  0 66
   28.3896   26.8434   26.6202 H   0  0  0  0  0  0  0  0  0 67
   30.5346   23.0725   26.2934 H   0  0  0  0  0  0  0  0  0 68
   32.9155   24.7609   25.6355 H   0  0  0  0  0  0  0  0  0 69
   31.8209   24.0638   24.4530 H   0  0  0  0  0  0  0  0  0 70
   34.1130   22.7770   25.2124 H   0  0  0  0  0  0  0  0  0 71
   32.6652   21.8949   24.7063 H   0  0  0  0  0  0  0  0  0 72
   33.8135   21.1736   26.9887 H   0  0  0  0  0  0  0  0  0 73
   32.0504   21.2989   26.9229 H   0  0  0  0  0  0  0  0  0 74
   33.0069   22.4936   28.9720 H   0  0  0  0  0  0  0  0  0 75
   33.8893   23.5550   27.8755 H   0  0  0  0  0  0  0  0  0 76
   31.9880   24.8901   28.1400 H   0  0  0  0  0  0  0  0  0 77
   30.9297   23.5329   28.5077 H   0  0  0  0  0  0  0  0  0 78
   24.4050   26.0342   25.8917 Mg  0  2  0  0  0  0  0  0  0 79
   21.0921   24.9605   25.3879 N   0  0  0  0  0  0  0  0  0 80
   27.7882   26.2569   23.2831 N   0  0  0  0  0  0  0  0  0 81
   21.4416   24.4648   23.2668 O   0  0  0  0  0  0  0  0  0 82
   23.2045   25.2887   24.5138 O   0  0  0  0  0  0  0  0  0 83
   18.2775   27.8579   26.9809 O   0  0  0  0  0  0  0  0  0 84
   18.5167   25.6320   27.3451 O   0  0  0  0  0  0  0  0  0 85
   23.1118   27.0057   26.6323 O   0  5  0  0  0  0  0  0  0 86
   23.5735   24.9897   27.1104 O   0  0  0  0  0  0  0  0  0 87
   28.9949   25.4276   21.6179 O   0  0  0  0  0  0  0  0  0 88
   29.7617   27.3162   22.6926 O   0  0  0  0  0  0  0  0  0 89
   28.8383   24.2151   25.0278 O   0  0  0  0  0  0  0  0  0 90
   30.4267   25.1620   26.3448 O   0  0  0  0  0  0  0  0  0 91
   26.1176   25.6488   26.0161 O   0  5  0  0  0  0  0  0  0 92
   25.2207   27.1541   24.8274 O   0  0  0  0  0  0  0  0  0 93
  2  1  1  0  0  0
  3  2  1  0  0  0
  4  2  1  0  0  0
  7  6  1  0  0  0
  8  7  1  0  0  0
 10  9  1  0  0  0
 11 10  1  0  0  0
 12 11  1  0  0  0
 13 12  1  0  0  0
 14 13  1  0  0  0
 14  9  1  0  0  0
 15  6  1  0  0  0
 17 16  1  0  0  0
 18 17  1  0  0  0
 19 17  1  0  0  0
 22 21  1  0  0  0
 23 22  1  0  0  0
 25 24  1  0  0  0
 26 25  1  0  0  0
 27 26  1  0  0  0
 28 27  1  0  0  0
 29 24  1  0  0  0
 29 28  1  0  0  0
 30 21  1  0  0  0
 31  1  1  0  0  0
 32  1  1  0  0  0
 33  1  1  0  0  0
 34  3  1  0  0  0
 35  3  1  0  0  0
 36  3  1  0  0  0
 37  4  1  0  0  0
 38  4  1  0  0  0
 39  4  1  0  0  0
 41  6  1  0  0  0
 42  7  1  0  0  0
 43  7  1  0  0  0
 44  9  1  0  0  0
 45 10  1  0  0  0
 46 10  1  0  0  0
 47 11  1  0  0  0
 48 11  1  0  0  0
 49 12  1  0  0  0
 50 12  1  0  0  0
 51 13  1  0  0  0
 52 13  1  0  0  0
 53 14  1  0  0  0
 54 14  1  0  0  0
 55 16  1  0  0  0
 56 16  1  0  0  0
 57 16  1  0  0  0
 58 18  1  0  0  0
 59 18  1  0  0  0
 60 18  1  0  0  0
 61 19  1  0  0  0
 62 19  1  0  0  0
 63 19  1  0  0  0
 65 21  1  0  0  0
 66 22  1  0  0  0
 67 22  1  0  0  0
 68 24  1  0  0  0
 69 25  1  0  0  0
 70 25  1  0  0  0
 71 26  1  0  0  0
 72 26  1  0  0  0
 73 27  1  0  0  0
 74 27  1  0  0  0
 75 28  1  0  0  0
 76 28  1  0  0  0
 77 29  1  0  0  0
 78 29  1  0  0  0
 80  5  1  0  0  0
 80 40  1  0  0  0
 80  6  1  0  0  0
 81 20  1  0  0  0
 81 64  1  0  0  0
 81 21  1  0  0  0
 82  5  1  0  0  0
 82  2  1  0  0  0
 83  5  2  0  0  0
 84  8  2  0  0  0
 85  9  1  0  0  0
 85  8  1  0  0  0
 86 15  1  0  0  0
 87 15  2  0  0  0
 88 20  1  0  0  0
 88 17  1  0  0  0
 89 20  2  0  0  0
 90 23  2  0  0  0
 91 24  1  0  0  0
 91 23  1  0  0  0
 92 30  1  0  0  0
 93 30  2  0  0  0
M  END
