mol Quench
  MatStudio         3D                             0

 77 75  0  0  0  0  0  0  0  0999 V2000
   22.1738   32.4366   23.0423 C   0  0  0  0  0  0  0  0  0  1
   23.4472   32.1734   23.8547 C   0  0  0  0  0  0  0  0  0  2
   23.9468   30.7234   23.7476 C   0  0  0  0  0  0  0  0  0  3
   25.1847   30.4682   24.6192 C   0  0  0  0  0  0  0  0  0  4
   25.9000   29.1083   24.4932 C   0  0  0  0  0  0  0  0  0  5
   25.3154   27.6990   24.7637 C   0  0  0  0  0  0  0  0  0  6
   24.2159   27.2097   23.8206 C   0  0  0  0  0  0  0  0  0  7
   23.6567   25.8579   24.2739 C   0  0  0  0  0  0  0  0  0  8
   26.5688   26.8231   24.6389 C   0  0  0  0  0  0  0  0  0  9
   22.3471   32.2188   21.9760 H   0  0  0  0  0  0  0  0  0 10
   21.8357   33.4829   23.1294 H   0  0  0  0  0  0  0  0  0 11
   21.3564   31.7829   23.3891 H   0  0  0  0  0  0  0  0  0 12
   24.2432   32.8599   23.5160 H   0  0  0  0  0  0  0  0  0 13
   23.2550   32.4129   24.9156 H   0  0  0  0  0  0  0  0  0 14
   23.1331   30.0436   24.0524 H   0  0  0  0  0  0  0  0  0 15
   24.1753   30.4914   22.6928 H   0  0  0  0  0  0  0  0  0 16
   25.9503   31.2283   24.3756 H   0  0  0  0  0  0  0  0  0 17
   24.9066   30.6415   25.6744 H   0  0  0  0  0  0  0  0  0 18
   26.7900   29.2020   25.1485 H   0  0  0  0  0  0  0  0  0 19
   26.3111   29.0846   23.4647 H   0  0  0  0  0  0  0  0  0 20
   24.9638   27.6691   25.8097 H   0  0  0  0  0  0  0  0  0 21
   23.3797   27.9270   23.7849 H   0  0  0  0  0  0  0  0  0 22
   24.6043   27.1331   22.7898 H   0  0  0  0  0  0  0  0  0 23
   23.2605   25.9327   25.2995 H   0  0  0  0  0  0  0  0  0 24
   24.4355   25.0791   24.2679 H   0  0  0  0  0  0  0  0  0 25
   22.8382   25.5167   23.6198 H   0  0  0  0  0  0  0  0  0 26
   26.7040   26.0522   23.6876 O   0  5  0  0  0  0  0  0  0 27
   27.4723   26.9202   25.4723 O   0  0  0  0  0  0  0  0  0 28
   27.3004   17.1496   27.3852 C   0  0  0  0  0  0  0  0  0 29
   26.5008   18.0288   26.4245 C   0  0  0  0  0  0  0  0  0 30
   27.1371   19.4045   26.2042 C   0  0  0  0  0  0  0  0  0 31
   26.3037   20.2964   25.2800 C   0  0  0  0  0  0  0  0  0 32
   26.8539   21.7165   25.0994 C   0  0  0  0  0  0  0  0  0 33
   28.2305   22.0546   24.4791 C   0  0  0  0  0  0  0  0  0 34
   28.5645   21.4742   23.0999 C   0  0  0  0  0  0  0  0  0 35
   27.5033   21.7531   22.0328 C   0  0  0  0  0  0  0  0  0 36
   28.2585   23.5859   24.4891 C   0  0  0  0  0  0  0  0  0 37
   27.4022   17.6379   28.3678 H   0  0  0  0  0  0  0  0  0 38
   28.3119   16.9569   26.9935 H   0  0  0  0  0  0  0  0  0 39
   26.8066   16.1781   27.5411 H   0  0  0  0  0  0  0  0  0 40
   26.3968   17.5143   25.4529 H   0  0  0  0  0  0  0  0  0 41
   25.4787   18.1641   26.8198 H   0  0  0  0  0  0  0  0  0 42
   27.2633   19.9076   27.1792 H   0  0  0  0  0  0  0  0  0 43
   28.1493   19.2804   25.7803 H   0  0  0  0  0  0  0  0  0 44
   26.1984   19.8004   24.2995 H   0  0  0  0  0  0  0  0  0 45
   25.2843   20.3971   25.6942 H   0  0  0  0  0  0  0  0  0 46
   26.8331   22.1786   26.1062 H   0  0  0  0  0  0  0  0  0 47
   26.0907   22.2731   24.5208 H   0  0  0  0  0  0  0  0  0 48
   29.0080   21.7170   25.1876 H   0  0  0  0  0  0  0  0  0 49
   29.5354   21.8800   22.7633 H   0  0  0  0  0  0  0  0  0 50
   28.6984   20.3810   23.1813 H   0  0  0  0  0  0  0  0  0 51
   26.5323   21.3180   22.3164 H   0  0  0  0  0  0  0  0  0 52
   27.7954   21.3191   21.0638 H   0  0  0  0  0  0  0  0  0 53
   27.3601   22.8351   21.8866 H   0  0  0  0  0  0  0  0  0 54
   27.7425   24.1832   25.4377 O   0  5  0  0  0  0  0  0  0 55
   28.7767   24.2310   23.5781 O   0  0  0  0  0  0  0  0  0 56
   29.7397   27.9499   21.2846 C   0  0  0  0  0  0  0  0  0 57
   28.8814   27.3036   22.1767 C   0  0  0  0  0  0  0  0  0 58
   30.6048   26.8984   23.6609 C   0  0  0  0  0  0  0  0  0 59
   31.5352   27.5378   22.7951 C   0  0  0  0  0  0  0  0  0 60
   31.0880   28.0687   21.6005 C   0  0  0  0  0  0  0  0  0 61
   30.9412   26.3381   24.8832 C   0  0  0  0  0  0  0  0  0 62
   30.1346   25.2118   26.7322 C   0  0  0  0  0  0  0  0  0 63
   31.4021   25.1670   27.3168 C   0  0  0  0  0  0  0  0  0 64
   32.4805   25.7356   26.6490 C   0  0  0  0  0  0  0  0  0 65
   32.2585   26.3293   25.4217 C   0  0  0  0  0  0  0  0  0 66
   29.3390   28.3536   20.3430 H   0  0  0  0  0  0  0  0  0 67
   27.8102   27.2021   21.9389 H   0  0  0  0  0  0  0  0  0 68
   32.6013   27.6164   23.0493 H   0  0  0  0  0  0  0  0  0 69
   31.7817   28.5698   20.9086 H   0  0  0  0  0  0  0  0  0 70
   29.2689   24.7631   27.2454 H   0  0  0  0  0  0  0  0  0 71
   31.5318   24.6801   28.2951 H   0  0  0  0  0  0  0  0  0 72
   33.4880   25.7105   27.0919 H   0  0  0  0  0  0  0  0  0 73
   33.1021   26.7820   24.8852 H   0  0  0  0  0  0  0  0  0 74
   28.2032   25.6196   24.5159 Mg  0  2  0  0  0  0  0  0  0 75
   29.2723   26.7744   23.3516 N   0  0  0  0  0  0  0  0  0 76
   29.8731   25.7766   25.5378 N   0  0  0  0  0  0  0  0  0 77
  2  1  1  0  0  0
  3  2  1  0  0  0
  4  3  1  0  0  0
  5  4  1  0  0  0
  6  5  1  0  0  0
  7  6  1  0  0  0
  8  7  1  0  0  0
  9  6  1  0  0  0
 10  1  1  0  0  0
 11  1  1  0  0  0
 12  1  1  0  0  0
 13  2  1  0  0  0
 14  2  1  0  0  0
 15  3  1  0  0  0
 16  3  1  0  0  0
 17  4  1  0  0  0
 18  4  1  0  0  0
 19  5  1  0  0  0
 20  5  1  0  0  0
 21  6  1  0  0  0
 22  7  1  0  0  0
 23  7  1  0  0  0
 24  8  1  0  0  0
 25  8  1  0  0  0
 26  8  1  0  0  0
 27  9  1  0  0  0
 28  9  2  0  0  0
 30 29  1  0  0  0
 31 30  1  0  0  0
 32 31  1  0  0  0
 33 32  1  0  0  0
 34 33  1  0  0  0
 35 34  1  0  0  0
 36 35  1  0  0  0
 37 34  1  0  0  0
 38 29  1  0  0  0
 39 29  1  0  0  0
 40 29  1  0  0  0
 41 30  1  0  0  0
 42 30  1  0  0  0
 43 31  1  0  0  0
 44 31  1  0  0  0
 45 32  1  0  0  0
 46 32  1  0  0  0
 47 33  1  0  0  0
 48 33  1  0  0  0
 49 34  1  0  0  0
 50 35  1  0  0  0
 51 35  1  0  0  0
 52 36  1  0  0  0
 53 36  1  0  0  0
 54 36  1  0  0  0
 55 37  1  0  0  0
 56 37  2  0  0  0
 58 57  2  0  0  0
 60 59  1  0  0  0
 61 60  2  0  0  0
 61 57  1  0  0  0
 62 59  1  0  0  0
 64 63  2  0  0  0
 65 64  1  0  0  0
 66 62  1  0  0  0
 66 65  2  0  0  0
 67 57  1  0  0  0
 68 58  1  0  0  0
 69 60  1  0  0  0
 70 61  1  0  0  0
 71 63  1  0  0  0
 72 64  1  0  0  0
 73 65  1  0  0  0
 74 66  1  0  0  0
 76 58  1  0  0  0
 76 59  2  0  0  0
 77 63  1  0  0  0
 77 62  2  0  0  0
M  END
