57

 N   12.714084    0.086227    1.294297
 Br   10.233358    1.466339    0.527239
 C   12.311388   -0.436947    0.141644
 C   13.763235   -0.352658    1.978550
 C   11.114921   -0.006297   -0.553683
 N   12.895687   -1.443572   -0.563104
 N   14.633303   -1.334093    1.637911
 C   14.136335    0.186018    3.277310
 C   11.018483   -0.779916   -1.708815
 C   10.162357    0.948494   -0.242960
 C   12.162519   -1.673187   -1.697081
 C   15.569212   -1.459073    2.627269
 C   13.565543    1.165030    4.065192
 C   15.270747   -0.508641    3.681746
 C    9.955727   -0.617151   -2.571735
 C    9.112589    1.104962   -1.110672
 N   12.424418   -2.551925   -2.657845
 N   16.603582   -2.292276    2.657845
 Br   12.806858    1.625229    3.786533
 C   14.152318    1.435337    5.272388
 C   15.858808   -0.235912    4.903982
 Br    9.880372   -1.131605   -3.341933
 C    9.007970    0.331343   -2.254400
 Br    8.458624    1.741490   -0.927213
 C   13.458788   -3.385127   -2.627269
 C   16.865481   -3.171013    1.697081
 C   15.282515    0.742132    5.688889
 Br   13.790842    2.093179    5.821112
 Br   16.616702   -0.695143    5.186443
 Br    8.281463    0.454870   -2.821306
 C   13.757253   -4.335559   -3.681746
 N   14.394697   -3.510107   -1.637911
 N   16.132313   -3.400628    0.563104
 C   18.009517   -4.064284    1.708815
 Br   15.659989    0.941228    6.515282
 C   13.169192   -4.608288   -4.903982
 C   14.891665   -5.030218   -3.277310
 C   15.264765   -4.491542   -1.978550
 C   16.716612   -4.407253   -0.141644
 C   17.913079   -4.837903    0.553683
 C   19.072273   -4.227049    2.571735
 Br   12.411298   -4.149058   -5.186443
 C   13.745485   -5.586332   -5.688889
 C   15.462457   -6.009230   -4.065192
 N   16.313916   -4.930427   -1.294297
 C   18.865643   -5.792695    0.242960
 C   20.020030   -5.175543    2.254400
 Br   19.147628   -3.712595    3.341933
 Br   13.368011   -5.785428   -6.515282
 C   14.875682   -6.279537   -5.272388
 Br   16.221142   -6.469429   -3.786533
 Br   18.794642   -6.310540   -0.527239
 C   19.915411   -5.949162    1.110672
 Br   20.746537   -5.299071    2.821306
 Br   15.237158   -6.937379   -5.821112
 Br   20.569376   -6.585690    0.927213
Zn   14.514000   -2.422100    0.000000
