57
C32 H16 N8 Zn
 C    5.615705    2.086747   10.241457
 C    7.072380    1.996968    8.394488
 C    7.227533    0.753655    6.551316
 C    3.800337    0.966212   10.896737
 C    5.242399    2.629787   11.539304
 C    4.103352    1.926601   11.951888
 C    3.507129    2.200305   13.181550
 H    2.735119    1.727948   13.470441
 C    4.082420    3.186414   13.967424
 H    3.695245    3.390270   14.810703
 C    5.216905    3.889114   13.552033
 H    5.584548    4.559508   14.115964
 C    5.814453    3.622690   12.327820
 H    6.583906    4.099754   12.039870
 C    8.275871    2.440038    7.700574
 C    9.228025    3.400912    8.012282
 H    9.153995    3.933406    8.795597
 C   10.290676    3.553293    7.135769
 H   10.956318    4.205120    7.320977
 C   10.403756    2.768094    5.986180
 H   11.147324    2.893731    5.408282
 C    9.451445    1.808191    5.670510
 H    9.527852    1.276977    4.886468
 C    8.380943    1.653383    6.546033
 N    4.745393    1.093844    9.900691
 N    6.665857    2.529817    9.548534
 N    6.488532    0.989506    7.681588
 N    2.760462    0.131513   10.925465
Zn    4.868902    0.000000    8.254979
 N    6.977341   -0.131513    5.584493
 C    2.510270   -0.753655    9.958641
 N    4.992410   -1.093844    6.609266
 N    3.249271   -0.989506    8.828370
 C    5.937466   -0.966212    5.613221
 C    1.356860   -1.653383    9.963925
 C    4.122098   -2.086747    6.268501
 C    2.665423   -1.996968    8.115469
 C    5.634451   -1.926601    4.558069
 C    1.461932   -2.440038    8.809383
 C    0.286358   -1.808191   10.839447
 C    4.495404   -2.629787    4.970653
 N    3.071946   -2.529817    6.961423
 C    6.230674   -2.200305    3.328407
 C    0.509779   -3.400912    8.497675
 C   -0.665953   -2.768094   10.523777
 H    0.209951   -1.276977   11.623489
 C    3.923350   -3.622690    4.182137
 C    5.655383   -3.186414    2.542533
 H    7.002684   -1.727948    3.039516
 C   -0.552873   -3.553293    9.374188
 H    0.583808   -3.933406    7.714360
 H   -1.409521   -2.893731   11.101675
 H    3.153897   -4.099754    4.470087
 C    4.520898   -3.889114    2.957924
 H    6.042558   -3.390270    1.699254
 H   -1.218515   -4.205120    9.188980
 H    4.153255   -4.559508    2.393993
