   57
 
Br        1.432327    6.072638    1.059413
Br        4.596319    6.862176    1.534122
Br        6.928729    4.548495    1.327939
Br        6.114398    1.429185    0.649076
Br        5.924643   -1.391731   -1.526603
Br        6.868336   -4.556193   -1.531077
Br        4.769938   -6.906197   -0.564931
Br        1.696530   -6.121006    0.320613
Br       -1.435954    6.072062   -1.058181
Br       -1.692471   -6.122288   -0.319656
Br       -6.115371    1.425811   -0.649997
Br       -4.600233    6.859740   -1.533652
Br       -5.924271   -1.395556    1.525486
Br       -4.765488   -6.909366    0.565467
Br       -6.931310    4.544685   -1.328431
Br       -6.865775   -4.560610    1.530397
C         2.764997    1.208183    0.018347
C         2.746360   -1.138264   -0.320763
C         1.183678   -2.751372   -0.103895
C         1.174477    2.799021    0.130975
C         3.455004    2.464063    0.359727
C         2.451401    3.464327    0.438570
C         2.777199    4.770777    0.817528
C         4.122933    5.090211    1.061984
C         5.123671    4.096448    0.975411
C         4.788864    2.771876    0.648433
C         3.433026   -2.417485   -0.550613
C         4.733922   -2.739161   -0.950893
C         5.116971   -4.088687   -0.983921
C         4.204703   -5.098882   -0.603215
C         2.881241   -4.775416   -0.261410
C         2.479084   -3.434982   -0.295598
C        -1.176334    2.798296   -0.130710
C        -1.182029   -2.752144    0.104115
C        -2.453580    3.462901   -0.438293
C        -2.745882   -1.140036    0.320471
C        -2.765904    1.206462   -0.018582
C        -2.476990   -3.436614    0.295762
C        -3.456600    2.462021   -0.359846
C        -2.780054    4.769273   -0.817044
C        -3.431702   -2.419707    0.550371
C        -2.878192   -4.777340    0.261839
C        -4.790574    2.769171   -0.648812
C        -4.125882    5.087966   -1.061755
C        -4.732454   -2.742242    0.950389
C        -4.201522   -5.101651    0.603340
C        -5.126061    4.093571   -0.975643
C        -5.114582   -4.092008    0.983591
N         1.424876    1.467854   -0.060636
N         3.354748    0.037990   -0.202401
N         1.419072   -1.401774   -0.115871
N        -0.001090    3.405514    0.000242
N         0.001014   -3.354694    0.000206
N        -1.418407   -1.402672    0.115901
N        -1.425930    1.466956    0.060630
N        -3.354969    0.035864    0.201995
Zn       -0.000080    0.031623    0.000031
