   57
 
C          2.515880   -1.664118    0.000707
C          2.942589    0.663696    0.000713
C          1.664139    2.515919    0.000704
C          0.663766   -2.942575    0.000720
C          2.967691   -3.055732   -0.000188
C          1.804791   -3.858454   -0.000191
C          1.892394   -5.250943   -0.001097
C          3.164392   -5.823262   -0.001851
C          4.322761   -5.023584   -0.001903
C          4.238645   -3.631337   -0.001078
C          3.858439    1.804706   -0.000264
C          5.250966    1.892256   -0.001070
C          5.823296    3.164055   -0.002038
C          5.023676    4.322643   -0.001884
C          3.631537    4.238589   -0.001175
C          3.055801    2.967619   -0.000256
C         -1.664068   -2.516043    0.000777
C         -0.663722    2.942513    0.000640
C         -3.055727   -2.967757   -0.000128
C         -2.515945    1.664055    0.000664
C         -2.942542   -0.663817    0.000777
C         -1.804758    3.858396   -0.000235
C         -3.858413   -1.804788   -0.000155
C         -3.631442   -4.238659   -0.001234
C         -2.967680    3.055695   -0.000184
C         -1.892358    5.250882   -0.000888
C         -5.250884   -1.892327   -0.001088
C         -5.023747   -4.322735   -0.001951
C         -4.238630    3.631429   -0.001135
C         -3.164183    5.823291   -0.002056
C         -5.823360   -3.164222   -0.002125
C         -4.322670    5.023648   -0.001682
H          0.994674   -5.860404   -0.001016
H          3.266477   -6.904409   -0.002592
H          5.297548   -5.502225   -0.002533
H          5.126772   -3.007920   -0.001228
H          5.860373    0.994491   -0.001142
H          6.904788    3.266115   -0.002609
H          5.502507    5.297534   -0.002608
H          3.008141    5.126893   -0.001024
H         -3.008121   -5.126720   -0.001152
H         -0.994637    5.860262   -0.001258
H         -5.860334   -0.994385   -0.001207
H         -5.502443   -5.297462   -0.002906
H         -5.126818    3.007953   -0.000946
H         -3.266239    6.904647   -0.002383
H         -6.904710   -3.266239   -0.002764
H         -5.297485    5.502404   -0.002630
N          1.144234   -1.657729    0.001332
N          3.333265   -0.610898    0.000588
N          1.657716    1.144277    0.001436
N         -0.610877   -3.333336    0.000640
N          0.610905    3.333308    0.000478
N         -1.144228    1.657705    0.001237
N         -1.657727   -1.144315    0.001509
N         -3.333293    0.610872    0.000591
Zn        -0.000142    0.000202    0.003208
