114
C32 H16 N8 Zn
 C    4.122098    2.766153    6.268501
 C    5.615705    2.086747   10.241457
 C    2.665423    2.855932    8.115469
 C    7.072380    1.996968    8.394488
 C    2.510270    4.099245    9.958641
 C    7.227533    0.753655    6.551316
 C    3.800337    0.966212   10.896737
 C    5.937466    3.886688    5.613221
 C    4.495404    2.223113    4.970653
 C    5.242399    2.629787   11.539304
 C    5.634451    2.926299    4.558069
 C    4.103352    1.926601   11.951888
 C    6.230674    2.652595    3.328407
 C    3.507129    2.200305   13.181550
 H    7.002684    3.124952    3.039516
 H    2.735119    1.727948   13.470441
 C    5.655383    1.666486    2.542533
 C    4.082420    3.186414   13.967424
 H    6.042558    1.462630    1.699254
 H    3.695245    3.390270   14.810703
 C    4.520898    0.963786    2.957924
 C    5.216905    3.889114   13.552033
 H    4.153255    0.293392    2.393993
 H    5.584548    4.559508   14.115964
 C    3.923350    1.230210    4.182137
 C    5.814453    3.622690   12.327820
 H    3.153897    0.753146    4.470087
 H    6.583906    4.099754   12.039870
 C    1.461932    2.412862    8.809383
 C    8.275871    2.440038    7.700574
 C    0.509779    1.451988    8.497675
 C    9.228025    3.400912    8.012282
 H    0.583808    0.919494    7.714360
 H    9.153995    3.933406    8.795597
 C   -0.552873    1.299607    9.374188
 C   10.290676    3.553293    7.135769
 H   -1.218515    0.647780    9.188980
 H   10.956318    4.205120    7.320977
 C   -0.665953    2.084806   10.523777
 C   10.403756    2.768094    5.986180
 H   -1.409521    1.959169   11.101675
 H   11.147324    2.893731    5.408282
 C    0.286358    3.044709   10.839447
 C    9.451445    1.808191    5.670510
 H    0.209951    3.575923   11.623489
 H    9.527852    1.276977    4.886468
 C    1.356860    3.199517    9.963925
 C    8.380943    1.653383    6.546033
 N    4.992410    3.759057    6.609266
 N    4.745393    1.093844    9.900691
 N    3.071946    2.323083    6.961423
 N    6.665857    2.529817    9.548534
 N    3.249271    3.863394    8.828370
 N    6.488532    0.989506    7.681588
 N    2.760462    0.131513   10.925465
 N    6.977341    4.721387    5.584493
Zn    4.868902    0.000000    8.254979
Zn    4.868902    4.852900    8.254979
 N    2.760462    4.984413   10.925465
 N    6.977341   -0.131513    5.584493
 C    2.510270   -0.753655    9.958641
 C    7.227533    5.606556    6.551316
 N    4.992410   -1.093844    6.609266
 N    3.249271   -0.989506    8.828370
 N    6.488532    5.842406    7.681588
 N    4.745393    5.946744    9.900691
 C    3.800337    5.819113   10.896737
 C    5.937466   -0.966212    5.613221
 C    1.356860   -1.653383    9.963925
 C    8.380943    6.506283    6.546033
 C    4.122098   -2.086747    6.268501
 C    2.665423   -1.996968    8.115469
 C    7.072380    6.849868    8.394488
 C    5.615705    6.939647   10.241457
 C    4.103352    6.779501   11.951888
 C    5.634451   -1.926601    4.558069
 C    1.461932   -2.440038    8.809383
 C    0.286358   -1.808191   10.839447
 C    9.451445    6.661091    5.670510
 C    8.275871    7.292938    7.700574
 C    4.495404   -2.629787    4.970653
 N    3.071946   -2.529817    6.961423
 N    6.665857    7.382717    9.548534
 C    5.242399    7.482687   11.539304
 C    3.507129    7.053205   13.181550
 C    6.230674   -2.200305    3.328407
 C    0.509779   -3.400912    8.497675
 C   -0.665953   -2.768094   10.523777
 H    0.209951   -1.276977   11.623489
 H    9.527852    6.129878    4.886468
 C   10.403756    7.620994    5.986180
 C    9.228025    8.253812    8.012282
 C    3.923350   -3.622690    4.182137
 C    5.814453    8.475590   12.327820
 H    2.735119    6.580848   13.470441
 C    4.082420    8.039314   13.967424
 C    5.655383   -3.186414    2.542533
 H    7.002684   -1.727948    3.039516
 C   -0.552873   -3.553293    9.374188
 H    0.583808   -3.933406    7.714360
 H   -1.409521   -2.893731   11.101675
 H   11.147324    7.746631    5.408282
 C   10.290676    8.406193    7.135769
 H    9.153995    8.786307    8.795597
 H    3.153897   -4.099754    4.470087
 C    4.520898   -3.889114    2.957924
 C    5.216905    8.742014   13.552033
 H    6.583906    8.952654   12.039870
 H    3.695245    8.243170   14.810703
 H    6.042558   -3.390270    1.699254
 H   -1.218515   -4.205120    9.188980
 H   10.956318    9.058020    7.320977
 H    4.153255   -4.559508    2.393993
 H    5.584548    9.412408   14.115964
